cases/ieee39/IEEE39.raw
0  100.000
 IEEE 39-bus test system
 generated from MATPOWER data by tools/make_cases.py
      1, 1,    97.600,    44.200,     0.000,     0.000,   2, 1.03938, -13.5366,'BUS-1       ', 345.0000,   1
      2, 1,     0.000,     0.000,     0.000,     0.000,   2, 1.04849,  -9.7853,'BUS-2       ', 345.0000,   1
      3, 1,   322.000,     2.400,     0.000,     0.000,   2, 1.03071, -12.2764,'BUS-3       ', 345.0000,   1
      4, 1,   500.000,   184.000,     0.000,     0.000,   1, 1.00446, -12.6267,'BUS-4       ', 345.0000,   1
      5, 1,     0.000,     0.000,     0.000,     0.000,   1, 1.00601, -11.1923,'BUS-5       ', 345.0000,   1
      6, 1,     0.000,     0.000,     0.000,     0.000,   1, 1.00823, -10.4083,'BUS-6       ', 345.0000,   1
      7, 1,   233.800,    84.000,     0.000,     0.000,   1, 0.99840, -12.7556,'BUS-7       ', 345.0000,   1
      8, 1,   522.000,   176.600,     0.000,     0.000,   1, 0.99787, -13.3358,'BUS-8       ', 345.0000,   1
      9, 1,     6.500,   -66.600,     0.000,     0.000,   1, 1.03833, -14.1784,'BUS-9       ', 345.0000,   1
     10, 1,     0.000,     0.000,     0.000,     0.000,   1, 1.01784,  -8.1709,'BUS-10      ', 345.0000,   1
     11, 1,     0.000,     0.000,     0.000,     0.000,   1, 1.01339,  -8.9370,'BUS-11      ', 345.0000,   1
     12, 1,     8.530,    88.000,     0.000,     0.000,   1, 1.00082,  -8.9988,'BUS-12      ', 345.0000,   1
     13, 1,     0.000,     0.000,     0.000,     0.000,   1, 1.01492,  -8.9299,'BUS-13      ', 345.0000,   1
     14, 1,     0.000,     0.000,     0.000,     0.000,   1, 1.01232, -10.7153,'BUS-14      ', 345.0000,   1
     15, 1,   320.000,   153.000,     0.000,     0.000,   3, 1.01619, -11.3454,'BUS-15      ', 345.0000,   1
     16, 1,   329.000,    32.300,     0.000,     0.000,   3, 1.03252, -10.0333,'BUS-16      ', 345.0000,   1
     17, 1,     0.000,     0.000,     0.000,     0.000,   2, 1.03424, -11.1164,'BUS-17      ', 345.0000,   1
     18, 1,   158.000,    30.000,     0.000,     0.000,   2, 1.03157, -11.9862,'BUS-18      ', 345.0000,   1
     19, 1,     0.000,     0.000,     0.000,     0.000,   3, 1.05011,  -5.4101,'BUS-19      ', 345.0000,   1
     20, 1,   680.000,   103.000,     0.000,     0.000,   3, 0.99101,  -6.8212,'BUS-20      ', 345.0000,   1
     21, 1,   274.000,   115.000,     0.000,     0.000,   3, 1.03232,  -7.6287,'BUS-21      ', 345.0000,   1
     22, 1,     0.000,     0.000,     0.000,     0.000,   3, 1.05014,  -3.1831,'BUS-22      ', 345.0000,   1
     23, 1,   247.500,    84.600,     0.000,     0.000,   3, 1.04515,  -3.3813,'BUS-23      ', 345.0000,   1
     24, 1,   308.600,   -92.200,     0.000,     0.000,   3, 1.03800,  -9.9138,'BUS-24      ', 345.0000,   1
     25, 1,   224.000,    47.200,     0.000,     0.000,   2, 1.05768,  -8.3692,'BUS-25      ', 345.0000,   1
     26, 1,   139.000,    17.000,     0.000,     0.000,   2, 1.05256,  -9.4388,'BUS-26      ', 345.0000,   1
     27, 1,   281.000,    75.500,     0.000,     0.000,   2, 1.03834, -11.3622,'BUS-27      ', 345.0000,   1
     28, 1,   206.000,    27.600,     0.000,     0.000,   3, 1.05037,  -5.9284,'BUS-28      ', 345.0000,   1
     29, 1,   283.500,    26.900,     0.000,     0.000,   3, 1.05011,  -3.1699,'BUS-29      ', 345.0000,   1
     30, 2,     0.000,     0.000,     0.000,     0.000,   2, 1.04990,  -7.3705,'BUS-30      ', 345.0000,   1
     31, 3,     9.200,     4.600,     0.000,     0.000,   1, 0.98200,   0.0000,'BUS-31      ', 345.0000,   1
     32, 2,     0.000,     0.000,     0.000,     0.000,   1, 0.98410,  -0.1884,'BUS-32      ', 345.0000,   1
     33, 2,     0.000,     0.000,     0.000,     0.000,   3, 0.99720,  -0.1932,'BUS-33      ', 345.0000,   1
     34, 2,     0.000,     0.000,     0.000,     0.000,   3, 1.01230,  -1.6311,'BUS-34      ', 345.0000,   1
     35, 2,     0.000,     0.000,     0.000,     0.000,   3, 1.04940,   1.7765,'BUS-35      ', 345.0000,   1
     36, 2,     0.000,     0.000,     0.000,     0.000,   3, 1.06360,   4.4684,'BUS-36      ', 345.0000,   1
     37, 2,     0.000,     0.000,     0.000,     0.000,   2, 1.02750,  -1.5829,'BUS-37      ', 345.0000,   1
     38, 2,     0.000,     0.000,     0.000,     0.000,   3, 1.02650,   3.8928,'BUS-38      ', 345.0000,   1
     39, 2,  1104.000,   250.000,     0.000,     0.000,   1, 1.03000, -14.5353,'BUS-39      ', 345.0000,   1
0 / END OF BUS DATA, BEGIN GENERATOR DATA
     30,'1 ',   250.000,   161.762,   400.000,   140.000, 1.04990,     0,   100.000,   0.00000,   1.00000,   0.00000,   0.00000,   1.00000,1,  100.0,  1040.000,     0.000
     31,'1 ',   677.871,   221.574,   300.000,  -100.000, 0.98200,     0,   100.000,   0.00000,   1.00000,   0.00000,   0.00000,   1.00000,1,  100.0,   646.000,     0.000
     32,'1 ',   650.000,   206.965,   300.000,   150.000, 0.98410,     0,   100.000,   0.00000,   1.00000,   0.00000,   0.00000,   1.00000,1,  100.0,   725.000,     0.000
     33,'1 ',   632.000,   108.293,   250.000,     0.000, 0.99720,     0,   100.000,   0.00000,   1.00000,   0.00000,   0.00000,   1.00000,1,  100.0,   652.000,     0.000
     34,'1 ',   508.000,   166.688,   167.000,     0.000, 1.01230,     0,   100.000,   0.00000,   1.00000,   0.00000,   0.00000,   1.00000,1,  100.0,   508.000,     0.000
     35,'1 ',   650.000,   210.661,   300.000,  -100.000, 1.04940,     0,   100.000,   0.00000,   1.00000,   0.00000,   0.00000,   1.00000,1,  100.0,   687.000,     0.000
     36,'1 ',   560.000,   100.165,   240.000,     0.000, 1.06360,     0,   100.000,   0.00000,   1.00000,   0.00000,   0.00000,   1.00000,1,  100.0,   580.000,     0.000
     37,'1 ',   540.000,    -1.369,   250.000,     0.000, 1.02750,     0,   100.000,   0.00000,   1.00000,   0.00000,   0.00000,   1.00000,1,  100.0,   564.000,     0.000
     38,'1 ',   830.000,    21.733,   300.000,  -150.000, 1.02650,     0,   100.000,   0.00000,   1.00000,   0.00000,   0.00000,   1.00000,1,  100.0,   865.000,     0.000
     39,'1 ',  1000.000,    78.467,   300.000,  -100.000, 1.03000,     0,   100.000,   0.00000,   1.00000,   0.00000,   0.00000,   1.00000,1,  100.0,  1100.000,     0.000
0 / END OF GENERATOR DATA, BEGIN BRANCH DATA
      1,      2,'1 ',   0.00350,   0.04110,   0.69870,   600.00,   600.00,   600.00, 0.00000,   0.000, 0.00000, 0.00000, 0.00000, 0.00000,1
      1,     39,'1 ',   0.00100,   0.02500,   0.75000,  1000.00,  1000.00,  1000.00, 0.00000,   0.000, 0.00000, 0.00000, 0.00000, 0.00000,1
      2,      3,'1 ',   0.00130,   0.01510,   0.25720,   500.00,   500.00,   500.00, 0.00000,   0.000, 0.00000, 0.00000, 0.00000, 0.00000,1
      2,     25,'1 ',   0.00700,   0.00860,   0.14600,   500.00,   500.00,   500.00, 0.00000,   0.000, 0.00000, 0.00000, 0.00000, 0.00000,1
      2,     30,'1 ',   0.00000,   0.01810,   0.00000,   900.00,   900.00,  2500.00, 1.02500,   0.000, 0.00000, 0.00000, 0.00000, 0.00000,1
      3,      4,'1 ',   0.00130,   0.02130,   0.22140,   500.00,   500.00,   500.00, 0.00000,   0.000, 0.00000, 0.00000, 0.00000, 0.00000,1
      3,     18,'1 ',   0.00110,   0.01330,   0.21380,   500.00,   500.00,   500.00, 0.00000,   0.000, 0.00000, 0.00000, 0.00000, 0.00000,1
      4,      5,'1 ',   0.00080,   0.01280,   0.13420,   600.00,   600.00,   600.00, 0.00000,   0.000, 0.00000, 0.00000, 0.00000, 0.00000,1
      4,     14,'1 ',   0.00080,   0.01290,   0.13820,   500.00,   500.00,   500.00, 0.00000,   0.000, 0.00000, 0.00000, 0.00000, 0.00000,1
      5,      6,'1 ',   0.00020,   0.00260,   0.04340,  1200.00,  1200.00,  1200.00, 0.00000,   0.000, 0.00000, 0.00000, 0.00000, 0.00000,1
      5,      8,'1 ',   0.00080,   0.01120,   0.14760,   900.00,   900.00,   900.00, 0.00000,   0.000, 0.00000, 0.00000, 0.00000, 0.00000,1
      6,      7,'1 ',   0.00060,   0.00920,   0.11300,   900.00,   900.00,   900.00, 0.00000,   0.000, 0.00000, 0.00000, 0.00000, 0.00000,1
      6,     11,'1 ',   0.00070,   0.00820,   0.13890,   480.00,   480.00,   480.00, 0.00000,   0.000, 0.00000, 0.00000, 0.00000, 0.00000,1
      6,     31,'1 ',   0.00000,   0.02500,   0.00000,  1800.00,  1800.00,  1800.00, 1.07000,   0.000, 0.00000, 0.00000, 0.00000, 0.00000,1
      7,      8,'1 ',   0.00040,   0.00460,   0.07800,   900.00,   900.00,   900.00, 0.00000,   0.000, 0.00000, 0.00000, 0.00000, 0.00000,1
      8,      9,'1 ',   0.00230,   0.03630,   0.38040,   900.00,   900.00,   900.00, 0.00000,   0.000, 0.00000, 0.00000, 0.00000, 0.00000,1
      9,     39,'1 ',   0.00100,   0.02500,   1.20000,   900.00,   900.00,   900.00, 0.00000,   0.000, 0.00000, 0.00000, 0.00000, 0.00000,1
     10,     11,'1 ',   0.00040,   0.00430,   0.07290,   600.00,   600.00,   600.00, 0.00000,   0.000, 0.00000, 0.00000, 0.00000, 0.00000,1
     10,     13,'1 ',   0.00040,   0.00430,   0.07290,   600.00,   600.00,   600.00, 0.00000,   0.000, 0.00000, 0.00000, 0.00000, 0.00000,1
     10,     32,'1 ',   0.00000,   0.02000,   0.00000,   900.00,   900.00,  2500.00, 1.07000,   0.000, 0.00000, 0.00000, 0.00000, 0.00000,1
     12,     11,'1 ',   0.00160,   0.04350,   0.00000,   500.00,   500.00,   500.00, 1.00600,   0.000, 0.00000, 0.00000, 0.00000, 0.00000,1
     12,     13,'1 ',   0.00160,   0.04350,   0.00000,   500.00,   500.00,   500.00, 1.00600,   0.000, 0.00000, 0.00000, 0.00000, 0.00000,1
     13,     14,'1 ',   0.00090,   0.01010,   0.17230,   600.00,   600.00,   600.00, 0.00000,   0.000, 0.00000, 0.00000, 0.00000, 0.00000,1
     14,     15,'1 ',   0.00180,   0.02170,   0.36600,   600.00,   600.00,   600.00, 0.00000,   0.000, 0.00000, 0.00000, 0.00000, 0.00000,1
     15,     16,'1 ',   0.00090,   0.00940,   0.17100,   600.00,   600.00,   600.00, 0.00000,   0.000, 0.00000, 0.00000, 0.00000, 0.00000,1
     16,     17,'1 ',   0.00070,   0.00890,   0.13420,   600.00,   600.00,   600.00, 0.00000,   0.000, 0.00000, 0.00000, 0.00000, 0.00000,1
     16,     19,'1 ',   0.00160,   0.01950,   0.30400,   600.00,   600.00,  2500.00, 0.00000,   0.000, 0.00000, 0.00000, 0.00000, 0.00000,1
     16,     21,'1 ',   0.00080,   0.01350,   0.25480,   600.00,   600.00,   600.00, 0.00000,   0.000, 0.00000, 0.00000, 0.00000, 0.00000,1
     16,     24,'1 ',   0.00030,   0.00590,   0.06800,   600.00,   600.00,   600.00, 0.00000,   0.000, 0.00000, 0.00000, 0.00000, 0.00000,1
     17,     18,'1 ',   0.00070,   0.00820,   0.13190,   600.00,   600.00,   600.00, 0.00000,   0.000, 0.00000, 0.00000, 0.00000, 0.00000,1
     17,     27,'1 ',   0.00130,   0.01730,   0.32160,   600.00,   600.00,   600.00, 0.00000,   0.000, 0.00000, 0.00000, 0.00000, 0.00000,1
     19,     20,'1 ',   0.00070,   0.01380,   0.00000,   900.00,   900.00,  2500.00, 1.06000,   0.000, 0.00000, 0.00000, 0.00000, 0.00000,1
     19,     33,'1 ',   0.00070,   0.01420,   0.00000,   900.00,   900.00,  2500.00, 1.07000,   0.000, 0.00000, 0.00000, 0.00000, 0.00000,1
     20,     34,'1 ',   0.00090,   0.01800,   0.00000,   900.00,   900.00,  2500.00, 1.00900,   0.000, 0.00000, 0.00000, 0.00000, 0.00000,1
     21,     22,'1 ',   0.00080,   0.01400,   0.25650,   900.00,   900.00,   900.00, 0.00000,   0.000, 0.00000, 0.00000, 0.00000, 0.00000,1
     22,     23,'1 ',   0.00060,   0.00960,   0.18460,   600.00,   600.00,   600.00, 0.00000,   0.000, 0.00000, 0.00000, 0.00000, 0.00000,1
     22,     35,'1 ',   0.00000,   0.01430,   0.00000,   900.00,   900.00,  2500.00, 1.02500,   0.000, 0.00000, 0.00000, 0.00000, 0.00000,1
     23,     24,'1 ',   0.00220,   0.03500,   0.36100,   600.00,   600.00,   600.00, 0.00000,   0.000, 0.00000, 0.00000, 0.00000, 0.00000,1
     23,     36,'1 ',   0.00050,   0.02720,   0.00000,   900.00,   900.00,  2500.00, 1.00000,   0.000, 0.00000, 0.00000, 0.00000, 0.00000,1
     25,     26,'1 ',   0.00320,   0.03230,   0.53100,   600.00,   600.00,   600.00, 0.00000,   0.000, 0.00000, 0.00000, 0.00000, 0.00000,1
     25,     37,'1 ',   0.00060,   0.02320,   0.00000,   900.00,   900.00,  2500.00, 1.02500,   0.000, 0.00000, 0.00000, 0.00000, 0.00000,1
     26,     27,'1 ',   0.00140,   0.01470,   0.23960,   600.00,   600.00,   600.00, 0.00000,   0.000, 0.00000, 0.00000, 0.00000, 0.00000,1
     26,     28,'1 ',   0.00430,   0.04740,   0.78020,   600.00,   600.00,   600.00, 0.00000,   0.000, 0.00000, 0.00000, 0.00000, 0.00000,1
     26,     29,'1 ',   0.00570,   0.06250,   1.02900,   600.00,   600.00,   600.00, 0.00000,   0.000, 0.00000, 0.00000, 0.00000, 0.00000,1
     28,     29,'1 ',   0.00140,   0.01510,   0.24900,   600.00,   600.00,   600.00, 0.00000,   0.000, 0.00000, 0.00000, 0.00000, 0.00000,1
     29,     38,'1 ',   0.00080,   0.01560,   0.00000,  1200.00,  1200.00,  2500.00, 1.02500,   0.000, 0.00000, 0.00000, 0.00000, 0.00000,1
0 / END OF BRANCH DATA, BEGIN TRANSFORMER ADJUSTMENT DATA
0 / END OF TRANSFORMER ADJUSTMENT DATA, BEGIN AREA DATA
   1,     31,     0.0,  3.000,'AREA_1      '
   2,     31,     0.0,  3.000,'AREA_2      '
   3,     31,     0.0,  3.000,'AREA_3      '
0 / END OF AREA DATA, BEGIN TWO-TERMINAL DC DATA
0 / END OF TWO-TERMINAL DC DATA, BEGIN SWITCHED SHUNT DATA
0 / END OF SWITCHED SHUNT DATA, BEGIN IMPEDANCE CORRECTION DATA
0 / END OF IMPEDANCE CORRECTION DATA, BEGIN MULTI-TERMINAL DC DATA
0 / END OF MULTI-TERMINAL DC DATA, BEGIN MULTI-SECTION LINE DATA
0 / END OF MULTI-SECTION LINE DATA, BEGIN ZONE DATA
    1,'ZONE_1      '
0 / END OF ZONE DATA, BEGIN INTER-AREA TRANSFER DATA
0 / END OF INTER-AREA TRANSFER DATA, BEGIN OWNER DATA
    1,'OWNER_1     '
0 / END OF OWNER DATA, BEGIN FACTS DEVICE DATA
0 / END OF FACTS DEVICE DATA
