cases/ieee39/reference.csv
bus_id,vm_pu,va_deg,matpower_vm_pu,matpower_va_deg
1,1.039384,-13.5366,1.039384,-13.5366
2,1.048494,-9.7853,1.048494,-9.7853
3,1.030708,-12.2764,1.030708,-12.2764
4,1.004460,-12.6267,1.004460,-12.6267
5,1.006006,-11.1923,1.006006,-11.1923
6,1.008226,-10.4083,1.008226,-10.4083
7,0.998397,-12.7556,0.998397,-12.7556
8,0.997872,-13.3358,0.997872,-13.3358
9,1.038332,-14.1784,1.038332,-14.1784
10,1.017843,-8.1709,1.017843,-8.1709
11,1.013386,-8.9370,1.013386,-8.9370
12,1.000815,-8.9988,1.000815,-8.9988
13,1.014923,-8.9299,1.014923,-8.9299
14,1.012319,-10.7153,1.012319,-10.7153
15,1.016185,-11.3454,1.016185,-11.3454
16,1.032520,-10.0333,1.032520,-10.0333
17,1.034237,-11.1164,1.034237,-11.1164
18,1.031573,-11.9862,1.031573,-11.9862
19,1.050107,-5.4101,1.050107,-5.4101
20,0.991011,-6.8212,0.991011,-6.8212
21,1.032319,-7.6287,1.032319,-7.6287
22,1.050143,-3.1831,1.050143,-3.1831
23,1.045145,-3.3813,1.045145,-3.3813
24,1.038001,-9.9138,1.038001,-9.9138
25,1.057683,-8.3692,1.057683,-8.3692
26,1.052561,-9.4388,1.052561,-9.4388
27,1.038345,-11.3622,1.038345,-11.3622
28,1.050374,-5.9284,1.050374,-5.9284
29,1.050115,-3.1699,1.050115,-3.1699
30,1.049900,-7.3705,1.049900,-7.3705
31,0.982000,0.0000,0.982000,0.0000
32,0.984100,-0.1884,0.984100,-0.1884
33,0.997200,-0.1932,0.997200,-0.1932
34,1.012300,-1.6311,1.012300,-1.6311
35,1.049400,1.7765,1.049400,1.7765
36,1.063600,4.4684,1.063600,4.4684
37,1.027500,-1.5829,1.027500,-1.5829
38,1.026500,3.8928,1.026500,3.8928
39,1.030000,-14.5353,1.030000,-14.5353
